LAMMPS (12 Dec 2018)
package omp 0
using multi-threaded neighbor list subroutines
package omp 8
set 8 OpenMP thread(s) per MPI task
using multi-threaded neighbor list subroutines
# 2d Lennard-Jones melt

variable    x index 1
variable    y index 1
variable    z index 1

variable    xx equal 40*$x
variable    xx equal 40*1
variable    yy equal 20*$y
variable    yy equal 20*1
variable    zz equal 20*$z
variable    zz equal 20*1

units        lj
atom_style    atomic
dimension 2

lattice       hex 0.8442 #Set the lattice vector
Lattice spacing in x,y,z = 1.16953 2.02569 1.16953
region        box block 0 40 0 20 0 1
region        two block 5 15 5 15 0 1 # Make a region for where the atoms will begin
create_box    1 box
Created orthogonal box = (0 0 0) to (46.7813 40.5138 1.16953)
create_atoms    1 region two # Create the atoms
Created 210 atoms
  Time spent = 0 secs
mass        1 1.0

velocity    all create 1.44 87285 loop geom # Set their initial velocity which will be scaled during the simulation

pair_style    lj/cut 2.5 # Define the intermolecular interaction with the Lennard-Jones function with a cutoff of 2.5
pair_coeff    1 1 1.0 1.0 2.5 # Setting the sigma and epsilon values

# This neighbor list improves the efficiency of the calculation by only calculating interactions with particles within cutoff+0.3
neighbor    0.3 bin
neigh_modify    delay 0 every 1 check no

dump    1    all xyz 100 dump.lj #Saves the trajectory to a file to open in VMD

#dump    3 all movie 100 movie3d.mpg type type #    zoom 1.6 adiam 1.5
#dump_modify 3 pad 5

thermo 1000

fix        1 all nve # Performs an integration to move the sample through time
fix        2 all enforce2d # Make sure there is no forces in the z direction
fix        3 all temp/rescale 1 1.0 1.0 0.02 0.5# 0.2 0.02 0.5 # This rescales the velocity to keep the temperature constant.
run        100000 #run for this number of steps the default timestep for lj is 0.005 tau
Last active /omp style is pair_style lj/cut/omp
  update every 1 steps, delay 0 steps, check no
Step Temp E_pair E_mol TotEng Press
0         1.44   -2.7882119            0   -1.3550691  -0.21608417
Averages over the last 51 of 101 rows, steps 50000 to 100000:
Temp E_pair E_mol TotEng Press
0.999263 -0.329418 0 0.665087 0.107904
Loop time of 35.6316 on 8 procs for 100000 steps with 210 atoms
