LAMMPS (12 Dec 2018)
package omp 0
using multi-threaded neighbor list subroutines
package omp 4
set 4 OpenMP thread(s) per MPI task
using multi-threaded neighbor list subroutines
# 2d indenter simulation

dimension	2
boundary	p s p

atom_style	atomic
neighbor	0.3 bin
neigh_modify	delay 5

# create geometry

lattice		hex 0.9
Lattice spacing in x,y,z = 1.1327 1.96189 1.1327
region		box block 0 20 0 10 -0.25 0.25
create_box	2 box
Created orthogonal box = (0 0 -0.283174) to (22.6539 19.6189 0.283174)
create_atoms	1 box
Created 420 atoms
  Time spent = 0 secs

mass		1 1.0
mass		2 1.0

# LJ potentials

pair_style	lj/cut 2.5
pair_coeff	* * 1.0 1.0 2.5

# define groups

region	        1 block INF INF INF 1.25 INF INF
group		lower region 1
60 atoms in group lower
group		mobile subtract all lower
360 atoms in group mobile
set		group lower type 2
  60 settings made for type

# initial velocities

compute	  	new mobile temp
velocity	mobile create 0.2 482748 temp new
fix		1 all nve
fix		2 lower setforce 0.0 0.0 0.0
fix		3 all temp/rescale 100 0.1 0.1 0.01 1.0

# run with indenter

timestep	0.003
variable	k equal 1000.0/xlat
variable        y equal "13.0*ylat - step*dt*0.02*ylat"

fix		4 all indent $k sphere 10 v_y 0 5.0
fix		4 all indent 882.849286914814 sphere 10 v_y 0 5.0
fix		5 all enforce2d

thermo		1000
thermo_modify	temp new

dump		1 all atom 250 dump.indent

#dump		2 all image 1000 image.*.jpg type type #		zoom 1.6 adiam 1.5
#dump_modify	2 pad 5

dump		3 all movie 100 movie.mpg type type 		zoom 1.6 adiam 1.5
dump_modify	3 pad 5

run		30000
Last active /omp style is pair_style lj/cut/omp
  update every 1 steps, delay 5 steps, check yes
Step Temp E_pair E_mol TotEng Press Volume
0          0.2   -3.1727576            0   -3.0018052    -1.436185    444.53333
Averages over the last 16 of 31 rows, steps 15000 to 30000:
Temp E_pair E_mol TotEng Press Volume
0.119911 -3.01477 0 -2.91227 1.13458 467.007
Loop time of 10.4623 on 4 procs for 30000 steps with 420 atoms

# run without indenter

unfix           4
run		30000
Last active /omp style is pair_style lj/cut/omp
Step Temp E_pair E_mol TotEng Press Volume
30000   0.11671309   -2.9718694            0   -2.8721075    1.9285601    469.64639
Averages over the last 16 of 31 rows, steps 45000 to 60000:
Temp E_pair E_mol TotEng Press Volume
0.113784 -3.07923 0 -2.98197 -0.33147 465.183
Loop time of 10.3444 on 4 procs for 30000 steps with 420 atoms
