read_data PE_cl100.txt
  orthogonal box = (0 0 0) to (158.5 158.5 100)
  reading atoms ...
  100 atoms
  scanning bonds ...
  scanning angles ...
  scanning dihedrals ...
  reading bonds ...
  99 bonds
  reading angles ...
  98 angles
  reading dihedrals ...
  97 dihedrals

# Dreiding potential information
neighbor  0.4 bin
neigh_modify  every 10 one 10000
bond_style      harmonic
bond_coeff  1 350 1.53
angle_style     harmonic
angle_coeff 1 60 109.5
dihedral_style  multi/harmonic
dihedral_coeff  1 1.73 -4.49 0.776 6.99 0.0
pair_style  lj/cut 10.5
pair_coeff  1 1 0.112 4.01 10.5

compute csym all centro/atom fcc
compute peratom all pe/atom

#####################################################
# Equilibration (Langevin dynamics at 5000 K)

velocity  all create 5000.0 1231
fix   1 all nve/limit 0.05
fix   2 all langevin 5000.0 5000.0 10.0 904297
thermo_style  custom step temp
thermo          10000
timestep  1
run   1000000
Last active /omp style is dihedral_style multi/harmonic/omp
  update every 10 steps, delay 10 steps, check yes
Step Temp
       0         5000
   10000    3934.1613
   20000     5035.255
   30000    4649.9896
   40000    5098.4844
   50000     4826.255
   60000    5051.5437
   70000    5172.0781
   80000    4459.0141
   90000    4356.7981
  100000    4950.6647
  110000    4945.4379
  120000      5033.59
  130000    4280.7754
  140000    3933.9028
  150000    4053.5256
  160000    4508.0435
  170000    4055.9171
  180000     4984.825
  190000    4242.2204
  200000    4485.8695
  210000    4989.3952
  220000    4374.4192
  230000    4485.1081
  240000    5305.0591
  250000    4379.9124
  260000    4304.6529
  270000     4719.009
  280000    4467.0005
  290000    4714.0727
  300000    5167.3738
  310000    4266.7823
  320000    4457.6141
  330000    4075.6895
  340000    4869.8828
  350000    4855.5498
  360000    4588.8693
  370000    4377.6727
  380000    4164.9691
  390000    4550.4942
  400000    4757.3212
  410000     4681.901
  420000    4349.1386
  430000    4453.0311
  440000    4925.9753
  450000     5042.999
  460000    5031.4167
  470000    5013.4188
  480000    5100.2411
  490000    5240.9489
  500000    5162.4933
  510000     4627.528
  520000    4748.9011
  530000    3966.3239
  540000    5163.8072
  550000    5239.0815
  560000     4328.693
  570000     4827.383
  580000    4302.9091
  590000    4524.6835
  600000    4795.4903
  610000    5040.5419
  620000    4297.4731
  630000    4538.7411
  640000    4582.4527
  650000    4392.2502
  660000    5270.3311
  670000    4995.3256
  680000    4566.2635
  690000    4527.1452
  700000    4587.7642
  710000     5156.086
  720000    4112.9005
  730000    5026.2819
  740000    4901.4171
  750000    4585.6735
  760000    4347.0714
  770000    4789.5738
  780000     4936.504
  790000    4973.9661
  800000    5628.7492
  810000    4896.3862
  820000    4700.7141
  830000    4981.1406
  840000    5007.9142
  850000    4542.4695
  860000    4899.5019
  870000    4646.6302
  880000    4326.9876
  890000    4452.1174
  900000     5101.468
  910000    4802.9721
  920000      4590.75
  930000    4534.6512
  940000     5198.565
  950000    4729.6156
  960000    4550.3488
  970000    4708.4018
  980000    4752.0502
  990000    4245.3774
 1000000    3844.0487
Loop time of 316.385 on 8 procs for 1000000 steps with 100 atoms

unfix 1
unfix 2
write_restart   restart.PE_cl100.dreiding1
Last active /omp style is dihedral_style multi/harmonic/omp

#####################################################
# Define Settings
compute eng all pe/atom
compute eatoms all reduce sum c_eng

#####################################################
# Minimization

dump    1 all cfg 6 dump.comp_*.cfg mass type xs ys zs c_csym c_peratom fx fy fz
dump    3 all movie 6 movie3d.mpg type type     zoom 1.6 adiam 1.5
dump_modify 3 pad 5

reset_timestep 0
fix 1 all nvt temp 500.0 500.0 100.0
thermo 20
thermo_style custom step pe lx ly lz press pxx pyy pzz c_eatoms
min_style cg
minimize 1e-25 1e-25 500000 1000000
Last active /omp style is dihedral_style multi/harmonic/omp
Step PotEng Lx Ly Lz Press Pxx Pyy Pzz c_eatoms
0    1050.8075        158.5        158.5          100    1.7162977     9.779558    9.3394005   -13.970065    1050.8075
Averages over the last 39 of 77 rows, steps 760 to 1517:
PotEng Lx Ly Lz Press Pxx Pyy Pzz c_eatoms
-4.84873 158.5 158.5 100 20.5628 21.1872 21.432 19.0691 -4.84873
Loop time of 4.62526 on 8 procs for 1517 steps with 100 atoms

Minimization stats:
  Stopping criterion = linesearch alpha is zero
  Energy initial, next-to-last, final =
  Force two-norm initial, final = 1244.2 0.955361
  Force max component initial, final = 266.131 0.170777
  Final line search alpha, max atom move = 1.11605e-08 1.90595e-09
  Iterations, force evaluations = 1517 3128

print "All done"
All done
