LAMMPS (12 Dec 2018)
package omp 0
using multi-threaded neighbor list subroutines
package omp 4
set 4 OpenMP thread(s) per MPI task
using multi-threaded neighbor list subroutines
units metal
lattice fcc 3.632
Lattice spacing in x,y,z = 3.632 3.632 3.632
region box block -5 5 -5 5 -5 5
create_box 1 box
Created orthogonal box = (-18.16 -18.16 -18.16) to (18.16 18.16 18.16)
create_atoms 1 box
Created 4000 atoms
  Time spent = 0 secs
pair_style lj/cut 6.0
pair_coeff * * 2.0 1.0
mass 1 63.546
velocity all create 600 32075
fix 1 all nve
thermo 100
dump    1 all atom 250 dump.indent
dump    3 all movie 100 movie.mpg type type     zoom 1.6 adiam 1.5
dump_modify 3 pad 5
run 10000
Last active /omp style is pair_style lj/cut/omp
  update every 1 steps, delay 10 steps, check yes
Step Temp E_pair E_mol TotEng Press
0          600   -779.32976            0   -469.18297   -45050.381
Averages over the last 51 of 101 rows, steps 5000 to 10000:
Temp E_pair E_mol TotEng Press
22817.3 -12289.4 0 -494.85 114754
Loop time of 26.0888 on 4 procs for 10000 steps with 4000 atoms
